### RING OSCILLATOR with 3 inverters ###

# Modified from ahkab circuit 
#            simulator test netlist (Copyright 2006 Giuseppe Venturini)

x1 1 3 2 0 inv1
x2 3 4 2 0 inv1
x3 4 1 2 0 inv1

.subckt inv1 in out psupply nsupply
mosekv:m1 out in psupply psupply model=pch w=3u l=1u
mosekv:m2 out in nsupply nsupply model=nch w=1u l=1u
#cap:c1 out 0 c=10f
.ends

vdc:v2 2 0 vdc=2.5
# For now I need this to start the oscillation. 
# Later use a pulse source
vsin:vin 1 0 vdc=1. mag=1. freq=5GHz phase=0 rint=2MEG
       
.model nch mosekv (type=n vt0=.4 kp=40e-6)
.model pch mosekv (type=p vt0=-.4 kp=12e-6)

.analysis tran tstop=4n tstep=.02n im=trap verbose=0
.plot tran 1 3 4

.end

