#-----------------------------------------------------------

.subckt testckt in out gnd

#                         *** Elements ***

cap:c2 out gnd c=1e-09 
res:r1 in out model=res1
#-----------------------------------------------------------
.ends
#-----------------------------------------------------------

#-----------------------------------------------------------
#                  *** Models *** 

.model res1 res (r = 12e3 tc1=1e-3 )

#-----------------------------------------------------------
