### RING OSCILLATOR with 3 inverters ###

# Modified from ahkab circuit 
#            simulator test netlist (Copyright 2006 Giuseppe Venturini)

x1 1 3 20 0 inv1
x2 3 4 2 0 inv1
x3 4 1 2 0 inv1

.subckt inv1 in out psupply nsupply
mosbsim3:m1 out in psupply psupply model=pch w=3u l=1u
mosbsim3:m2 out in nsupply nsupply model=nch w=1u l=1u
#cap:cl out nsupply c=10fF
#cap:c1 out 0 c=10f
.ends

vdc:v2 2 0 vdc=2.5
# Need this to start the oscillation. 
vpulse:vdd2 20 0 v1=2 v2=2.5 tr=.1n

.model nch mosbsim3 (type=n)
.model pch mosbsim3 (type=p)

.options sparse=0
.analysis tran tstop=4n tstep=.01n im=trap verbose=0
.plot tran 1 3 4

.end

